1007
FCC 
Al -0.809681 -0.363882 -0.32119
Al -0.633667 -0.374683 -0.226838
Al -0.457653 -0.385484 -0.132485
Al -0.281639 -0.396284 -0.0381327
Al -0.683945 -0.21671 -0.11496
Al -0.507931 -0.227511 -0.0206074
Al -0.331917 -0.238311 0.073745
Al -0.55821 -0.0695375 0.0912703
Al -0.382195 -0.0803384 0.185623
Al -0.608488 0.0884356 0.203148
Al -0.432474 0.0776347 0.2975
Al -0.256459 0.0668337 0.391853
Al -0.482752 0.235608 0.409378
Al -0.306738 0.224807 0.50373
Al -0.678836 -0.399675 -0.56938
Al -0.502822 -0.410476 -0.475027
Al -0.326807 -0.421277 -0.380675
Al -0.150793 -0.432078 -0.286323
Al -0.905128 -0.230901 -0.551854
Al -0.729114 -0.241702 -0.457502
Al -0.5531 -0.252503 -0.36315
Al -0.377086 -0.263304 -0.268797
Al -0.201071 -0.274105 -0.174445
Al -0.0250573 -0.284906 -0.0800925
Al -0.955406 -0.0729282 -0.439977
Al -0.779392 -0.0837291 -0.345624
Al -0.603378 -0.09453 -0.251272
Al -0.427364 -0.105331 -0.15692
Al -0.25135 -0.116132 -0.0625672
Al -0.0753355 -0.126933 0.0317852
Al 0.994316 0.085045 -0.328099
Al -0.82967 0.0742441 -0.233747
Al -0.653656 0.0634431 -0.139394
Al -0.477642 0.0526422 -0.0450419
Al -0.301628 0.0418412 0.0493105
Al -0.125614 0.0310403 0.143663
Al -0.879948 0.232217 -0.121869
Al -0.703934 0.221416 -0.0275165
Al -0.52792 0.210615 0.0668359
Al -0.351906 0.199814 0.161188
Al -0.175892 0.189013 0.255541
Al -0.930227 0.39019 -0.00999118
Al -0.754212 0.379389 0.0843612
Al -0.578198 0.368588 0.178714
Al -0.402184 0.357787 0.273066
Al -0.22617 0.346986 0.367418
Al -0.980505 0.548163 0.101887
Al -0.804491 0.537362 0.196239
Al -0.628477 0.526561 0.290591
Al -0.452462 0.51576 0.384944
Al -0.276448 0.504959 0.479296
Al -0.854769 0.695335 0.308117
Al -0.678755 0.684534 0.402469
Al -0.502741 0.673733 0.496821
Al -0.729033 0.842507 0.514347
Al -0.371976 -0.446269 -0.723217
Al -0.195962 -0.45707 -0.628865
Al -0.598268 -0.277496 -0.705692
Al -0.422254 -0.288296 -0.61134
Al -0.24624 -0.299097 -0.516987
Al -0.0702257 -0.309898 -0.422635
Al 0.105788 -0.320699 -0.328282
Al -0.82456 -0.108722 -0.688167
Al -0.648546 -0.119522 -0.593814
Al -0.472532 -0.130323 -0.499462
Al -0.296518 -0.141124 -0.405109
Al -0.120504 -0.151925 -0.310757
Al 0.0555102 -0.162726 -0.216405
Al -0.874839 0.0492514 -0.576289
Al -0.698824 0.0384505 -0.481937
Al -0.52281 0.0276497 -0.387584
Al -0.346796 0.0168487 -0.293232
Al -0.170782 0.00604783 -0.198879
Al 0.00523204 -0.0047531 -0.104527
Al -0.925117 0.207225 -0.464411
Al -0.749103 0.196424 -0.370059
Al -0.573089 0.185623 -0.275706
Al -0.397074 0.174822 -0.181354
Al -0.22106 0.164021 -0.0870017
Al -0.0450462 0.15322 0.00735073
Al -0.975395 0.365198 -0.352533
Al -0.799381 0.354397 -0.258181
Al -0.623367 0.343596 -0.163829
Al -0.447353 0.332795 -0.0694763
Al -0.271338 0.321994 0.0248761
Al -0.0953243 0.311193 0.119228
Al 0.0806898 0.300392 0.213581
Al -0.849659 0.51237 -0.146303
Al -0.673645 0.501569 -0.051951
Al -0.497631 0.490768 0.0424014
Al -0.321617 0.479967 0.136754
Al -0.145603 0.469166 0.231106
Al 0.0304116 0.458365 0.325459
Al -0.899937 0.670343 -0.0344257
Al -0.723923 0.659542 0.0599267
Al -0.547909 0.648741 0.154279
Al -0.371895 0.63794 0.248631
Al -0.195881 0.627139 0.342984
Al -0.0198666 0.616338 0.437336
Al -0.774201 0.817515 0.171804
Al -0.598187 0.806714 0.266157
Al -0.422173 0.795913 0.360509
Al -0.246159 0.785112 0.454862
Al -0.0701448 0.774311 0.549214
Al -0.824479 0.975488 0.283682
Al -0.648465 0.964687 0.378035
Al -0.472451 0.953886 0.472387
Al -0.291408 -0.32409 -0.859529
Al -0.115394 -0.334891 -0.765177
Al 0.0606201 -0.345692 -0.670825
Al -0.5177 -0.155316 -0.842004
Al -0.341686 -0.166117 -0.747652
Al -0.165672 -0.176918 -0.653299
Al 0.0103419 -0.187719 -0.558947
Al 0.186356 -0.19852 -0.464595
Al -0.743993 0.013458 -0.824479
Al -0.567979 0.00265715 -0.730126
Al -0.391965 -0.0081438 -0.635774
Al -0.21595 -0.0189447 -0.541422
Al -0.0399363 -0.0297456 -0.447069
Al 0.136078 -0.0405465 -0.352717
Al 0.312092 -0.0513474 -0.258364
Al -0.794271 0.171431 -0.712601
Al -0.618257 0.16063 -0.618249
Al -0.442243 0.149829 -0.523896
Al -0.266229 0.139028 -0.429544
Al -0.0902145 0.128227 -0.335192
Al 0.0857996 0.117427 -0.240839
Al 0.261814 0.106626 -0.146487
Al -0.844549 0.329404 -0.600723
Al -0.668535 0.318603 -0.506371
Al -0.492521 0.307802 -0.412019
Al -0.316507 0.297001 -0.317666
Al -0.140493 0.2862 -0.223314
Al 0.0355214 0.2754 -0.128961
Al 0.211536 0.264599 -0.0346091
Al -0.894827 0.487377 -0.488846
Al -0.718813 0.476576 -0.394493
Al -0.542799 0.465775 -0.300141
Al -0.366785 0.454974 -0.205788
Al -0.190771 0.444174 -0.111436
Al -0.0147568 0.433373 -0.0170837
Al 0.161257 0.422572 0.0772687
Al -0.769091 0.634549 -0.282616
Al -0.593077 0.623748 -0.188263
Al -0.417063 0.612947 -0.0939108
Al -0.241049 0.602147 0.000441596
Al -0.065035 0.591346 0.094794
Al 0.110979 0.580545 0.189146
Al -0.81937 0.792522 -0.170738
Al -0.643355 0.781721 -0.0763855
Al -0.467341 0.770921 0.0179669
Al -0.291327 0.76012 0.112319
Al -0.115313 0.749319 0.206672
Al 0.060701 0.738518 0.301024
Al 0.236715 0.727717 0.395376
Al -0.693634 0.939695 0.0354922
Al -0.51762 0.928894 0.129845
Al -0.341605 0.918093 0.224197
Al -0.165591 0.907292 0.318549
Al 0.0104228 0.896491 0.412902
Al -0.743912 -0.902333 0.14737
Al -0.567898 -0.913133 0.241722
Al -0.391884 -0.923934 0.336075
Al -0.21587 -0.934735 0.430427
Al -0.386855 -0.191109 0.909806
Al -0.210841 -0.20191 -0.995842
Al -0.437133 -0.0331363 -0.978316
Al -0.261119 -0.0439372 -0.883964
Al -0.0851046 -0.0547381 -0.789611
Al 0.0909095 -0.065539 -0.695259
Al 0.266924 -0.0763399 -0.600907
Al -0.663425 0.135638 -0.960791
Al -0.487411 0.124837 -0.866439
Al -0.311397 0.114036 -0.772086
Al -0.135383 0.103235 -0.677734
Al 0.0406313 0.092434 -0.583381
Al 0.216645 0.0816331 -0.489029
Al -0.889717 0.304412 -0.943266
Al -0.713703 0.293611 -0.848913
Al -0.537689 0.28281 -0.754561
Al -0.361675 0.272009 -0.660208
Al -0.185661 0.261208 -0.565856
Al -0.00964694 0.250407 -0.471504
Al 0.166367 0.239606 -0.377151
Al -0.763982 0.451584 -0.737036
Al -0.587968 0.440783 -0.642683
Al -0.411953 0.429982 -0.548331
Al -0.235939 0.419181 -0.453978
Al -0.0599251 0.40838 -0.359626
Al 0.116089 0.397579 -0.265274
Al -0.81426 0.609557 -0.625158
Al -0.638246 0.598756 -0.530805
Al -0.462232 0.587955 -0.436453
Al -0.286217 0.577154 -0.342101
Al -0.110203 0.566353 -0.247748
Al 0.0658108 0.555552 -0.153396
Al 0.241825 0.544751 -0.0590435
Al -0.688524 0.756729 -0.418928
Al -0.51251 0.745928 -0.324575
Al -0.336496 0.735127 -0.230223
Al -0.160482 0.724326 -0.135871
Al 0.0155326 0.713525 -0.0415182
Al 0.191547 0.702724 0.0528342
Al -0.738802 0.914702 -0.30705
Al -0.562788 0.903901 -0.212698
Al -0.386774 0.8931 -0.118345
Al -0.21076 0.882299 -0.0239929
Al -0.0347456 0.871498 0.0703595
Al 0.141269 0.860697 0.164712
Al -0.78908 -0.927325 -0.195172
Al -0.613066 -0.938126 -0.10082
Al -0.437052 -0.948927 -0.00646755
Al -0.261038 -0.959728 0.0878848
Al -0.0850238 -0.970529 0.182237
Al 0.0909903 -0.98133 0.27659
Al -0.663344 -0.780153 0.0110578
Al -0.48733 -0.790954 0.10541
Al -0.311316 -0.801755 0.199763
Al -0.135302 -0.812556 0.294115
Al -0.306287 -0.0689296 0.773494
Al -0.356565 0.0890433 0.885372
Al -0.180551 0.0782424 0.979724
Al -0.00453706 0.0674415 -0.925924
Al 0.171477 0.0566406 -0.831571
Al -0.582858 0.257817 0.902897
Al -0.406844 0.247016 0.997249
Al -0.230829 0.236215 -0.908398
Al -0.0548153 0.225415 -0.814046
Al 0.121199 0.214614 -0.719694
Al -0.80915 0.426591 0.920422
Al -0.633136 0.41579 -0.985225
Al -0.457122 0.404989 -0.890873
Al -0.281108 0.394189 -0.796521
Al -0.105093 0.383388 -0.702168
Al 0.0709206 0.372587 -0.607816
Al -0.683414 0.573763 -0.873348
Al -0.5074 0.562963 -0.778995
Al -0.331386 0.552162 -0.684643
Al -0.155372 0.541361 -0.590291
Al 0.0206424 0.53056 -0.495938
Al 0.196657 0.519759 -0.401586
Al -0.733692 0.731736 -0.76147
Al -0.557678 0.720936 -0.667118
Al -0.381664 0.710135 -0.572765
Al -0.20565 0.699334 -0.478413
Al -0.0296358 0.688533 -0.38406
Al 0.146378 0.677732 -0.289708
Al -0.78397 0.88971 -0.649592
Al -0.607956 0.878909 -0.55524
Al -0.431942 0.868108 -0.460888
Al -0.255928 0.857307 -0.366535
Al -0.0799139 0.846506 -0.272183
Al 0.0961002 0.835705 -0.17783
Al -0.658235 -0.963118 -0.443362
Al -0.48222 -0.973919 -0.34901
Al -0.306206 -0.98472 -0.254657
Al -0.130192 -0.995521 -0.160305
Al 0.0458219 0.993678 -0.0659527
Al -0.708513 -0.805145 -0.331484
Al -0.532499 -0.815946 -0.237132
Al -0.356484 -0.826747 -0.14278
Al -0.18047 -0.837548 -0.0484273
Al -0.00445622 -0.848349 0.045925
Al -0.582777 -0.657973 -0.125254
Al -0.406763 -0.668774 -0.030902
Al -0.230749 -0.679575 0.0634504
Al -0.452012 0.222024 0.654707
Al -0.275998 0.211223 0.749059
Al -0.0999837 0.200422 0.843412
Al -0.50229 0.379997 0.766585
Al -0.326276 0.369196 0.860937
Al -0.150262 0.358395 0.955289
Al 0.0257523 0.347594 -0.950358
Al -0.728582 0.548771 0.78411
Al -0.552568 0.53797 0.878462
Al -0.376554 0.527169 0.972815
Al -0.20054 0.516368 -0.932833
Al -0.0245259 0.505567 -0.83848
Al 0.151488 0.494766 -0.744128
Al -0.602847 0.695943 0.99034
Al -0.426832 0.685142 -0.915307
Al -0.250818 0.674341 -0.820955
Al -0.0748041 0.66354 -0.726603
Al 0.10121 0.652739 -0.63225
Al -0.653125 0.853916 -0.897782
Al -0.477111 0.843115 -0.80343
Al -0.301096 0.832314 -0.709077
Al -0.125082 0.821513 -0.614725
Al 0.0509318 0.810712 -0.520373
Al -0.703403 -0.988111 -0.785904
Al -0.527389 -0.998912 -0.691552
Al -0.351375 0.990287 -0.5972
Al -0.175361 0.979486 -0.502847
Al 0.000653625 0.968685 -0.408495
Al -0.577667 -0.840939 -0.579674
Al -0.401653 -0.85174 -0.485322
Al -0.225639 -0.862541 -0.39097
Al -0.0496246 -0.873342 -0.296617
Al -0.627945 -0.682966 -0.467797
Al -0.451931 -0.693767 -0.373444
Al -0.275917 -0.704568 -0.279092
Al -0.0999027 -0.715369 -0.18474
Al -0.678223 -0.524993 -0.355919
Al -0.502209 -0.535794 -0.261567
Al -0.326195 -0.546595 -0.167214
Al -0.150181 -0.557395 -0.0728618
Al -0.19543 0.333403 0.612747
Al -0.421723 0.502177 0.630273
Al -0.245708 0.491376 0.724625
Al -0.0696943 0.480575 0.818977
Al -0.648015 0.67095 0.647798
Al -0.472001 0.66015 0.74215
Al -0.295987 0.649349 0.836503
Al -0.119972 0.638548 0.930855
Al 0.0560417 0.627747 -0.974793
Al -0.698293 0.828924 0.759676
Al -0.522279 0.818123 0.854028
Al -0.346265 0.807322 0.94838
Al -0.170251 0.796521 -0.957267
Al 0.00576347 0.78572 -0.862915
Al -0.572557 0.976096 0.965906
Al -0.396543 0.965295 -0.939742
Al -0.220529 0.954494 -0.84539
Al -0.0445148 0.943693 -0.751037
Al -0.622835 -0.865931 -0.922217
Al -0.446821 -0.876732 -0.827864
Al -0.270807 -0.887533 -0.733512
Al -0.0947929 -0.898334 -0.63916
Al -0.497099 -0.718759 -0.715987
Al -0.321085 -0.72956 -0.621634
Al -0.145071 -0.740361 -0.527282
Al -0.547378 -0.560786 -0.604109
Al -0.371364 -0.571587 -0.509756
Al -0.195349 -0.582388 -0.415404
Al -0.165141 0.613555 0.588313
Al 0.0108732 0.602754 0.682665
Al -0.391433 0.782329 0.605838
Al -0.215419 0.771528 0.700191
Al -0.0394049 0.760727 0.794543
Al -0.617725 0.951103 0.623363
Al -0.441711 0.940302 0.717716
Al -0.265697 0.929501 0.812068
Al -0.0896831 0.9187 0.906421
Al -0.49199 -0.901725 0.829594
Al -0.315975 -0.912526 0.923946
Al -0.139961 -0.923326 -0.981702
Al -0.542268 -0.743752 0.941471
Al -0.366254 -0.754553 -0.964176
Al -0.19024 -0.765354 -0.869824
Al -0.416532 -0.59658 -0.852299
Al -0.240518 -0.607381 -0.757946
Al -0.134851 0.893708 0.563878
Al -0.361144 -0.937518 0.581404
Al -0.18513 -0.948319 0.675756
Al -0.235408 -0.790346 0.787634
Al -0.285686 -0.632373 0.899511
Al 0.762965 0.0319363 -0.46445
Al 0.880186 0.144774 -0.348145
Al 0.48403 0.00974622 -0.505714
Al 0.60125 0.122584 -0.389409
Al 0.718471 0.235422 -0.273103
Al 0.835691 0.34826 -0.156798
Al 0.952911 0.461098 -0.0404921
Al 0.439535 0.213232 -0.314367
Al 0.556756 0.32607 -0.198061
Al 0.673976 0.438908 -0.0817559
Al 0.791197 0.551746 0.0345497
Al 0.908417 0.664584 0.150855
Al -0.974363 0.777422 0.267161
Al 0.395041 0.416718 -0.12302
Al 0.512261 0.529556 -0.00671411
Al 0.629482 0.642394 0.109591
Al 0.746702 0.755231 0.225897
Al 0.350546 0.620203 0.0683276
Al 0.467767 0.733041 0.184633
Al 0.584987 0.845879 0.300939
Al 0.306052 0.823689 0.259675
Al 0.935056 0.0793123 -0.683859
Al 0.773342 0.16996 -0.608817
Al 0.890562 0.282798 -0.492512
Al -0.992218 0.395636 -0.376206
Al 0.494406 0.14777 -0.650081
Al 0.611627 0.260608 -0.533775
Al 0.728847 0.373446 -0.41747
Al 0.846067 0.486284 -0.301164
Al 0.963288 0.599122 -0.184859
Al 0.332691 0.238418 -0.575039
Al 0.449912 0.351256 -0.458734
Al 0.567132 0.464094 -0.342428
Al 0.684353 0.576932 -0.226123
Al 0.801573 0.68977 -0.109817
Al 0.918793 0.802608 0.0064885
Al -0.963986 0.915446 0.122794
Al 0.288197 0.441904 -0.383692
Al 0.405417 0.554742 -0.267386
Al 0.522638 0.667579 -0.151081
Al 0.639858 0.780417 -0.0347753
Al 0.757078 0.893255 0.0815302
Al 0.874299 -0.993907 0.197836
Al 0.243702 0.645389 -0.192345
Al 0.360923 0.758227 -0.0760391
Al 0.478143 0.871065 0.0402665
Al 0.595364 0.983903 0.156572
Al 0.199208 0.848875 -0.000997335
Al 0.316428 0.961713 0.115308
Al 0.154713 -0.947639 0.19035
Al 0.945433 0.217336 -0.828226
Al -0.937347 0.330174 -0.71192
Al 0.666498 0.195146 -0.869489
Al 0.783718 0.307984 -0.753184
Al 0.900938 0.420822 -0.636878
Al -0.981841 0.53366 -0.520573
Al 0.504783 0.285794 -0.794448
Al 0.622003 0.398632 -0.678142
Al 0.739223 0.51147 -0.561837
Al 0.856444 0.624308 -0.445531
Al 0.973664 0.737146 -0.329226
Al -0.909115 0.849984 -0.21292
Al 0.225847 0.263604 -0.835711
Al 0.343068 0.376442 -0.719406
Al 0.460288 0.48928 -0.6031
Al 0.577509 0.602117 -0.486795
Al 0.694729 0.714955 -0.370489
Al 0.811949 0.827793 -0.254184
Al 0.92917 0.940631 -0.137878
Al -0.95361 -0.946531 -0.0215726
Al 0.181353 0.467089 -0.644364
Al 0.298573 0.579927 -0.528059
Al 0.415794 0.692765 -0.411753
Al 0.533014 0.805603 -0.295448
Al 0.650235 0.918441 -0.179142
Al 0.767455 -0.968721 -0.0628365
Al 0.884675 -0.855883 0.0534691
Al 0.254079 0.783413 -0.336711
Al 0.371299 0.896251 -0.220406
Al 0.48852 -0.990911 -0.1041
Al 0.60574 -0.878073 0.0122053
Al 0.209584 0.986899 -0.145364
Al 0.326805 -0.900263 -0.0290585
Al 0.16509 -0.809615 0.0459833
Al 0.955809 0.35536 -0.972592
Al -0.92697 0.468198 -0.856287
Al 0.676874 0.33317 0.986144
Al 0.794094 0.446008 -0.897551
Al 0.911315 0.558846 -0.781245
Al -0.971465 0.671684 -0.66494
Al -0.854244 0.784522 -0.548634
Al 0.515159 0.423818 -0.938814
Al 0.63238 0.536656 -0.822509
Al 0.7496 0.649493 -0.706203
Al 0.86682 0.762331 -0.589898
Al 0.984041 0.875169 -0.473592
Al -0.898739 0.988007 -0.357287
Al 0.236224 0.401627 -0.980078
Al 0.353444 0.514465 -0.863773
Al 0.470665 0.627303 -0.747467
Al 0.587885 0.740141 -0.631162
Al 0.705105 0.852979 -0.514856
Al 0.822326 0.965817 -0.398551
Al 0.939546 -0.921345 -0.282245
Al -0.943233 -0.808507 -0.165939
Al 0.191729 0.605113 -0.788731
Al 0.30895 0.717951 -0.672425
Al 0.42617 0.830789 -0.55612
Al 0.543391 0.943627 -0.439814
Al 0.660611 -0.943535 -0.323509
Al 0.777831 -0.830697 -0.207203
Al 0.895052 -0.717859 -0.0908977
Al 0.147235 0.808599 -0.597384
Al 0.264455 0.921437 -0.481078
Al 0.381676 -0.965725 -0.364773
Al 0.498896 -0.852887 -0.248467
Al 0.616116 -0.740049 -0.132161
Al 0.10274 -0.987915 -0.406036
Al 0.219961 -0.875077 -0.289731
Al 0.337181 -0.762239 -0.173425
Al 0.454401 -0.649401 -0.0571197
Al 0.0582458 -0.78443 -0.214689
Al 0.175466 -0.671592 -0.0983834
Al 0.966186 0.493384 0.883041
Al -0.916594 0.606222 0.999346
Al 0.68725 0.471194 0.841777
Al 0.804471 0.584032 0.958083
Al 0.921691 0.696869 -0.925612
Al -0.961088 0.809707 -0.809306
Al -0.843868 0.922545 -0.693001
Al 0.408315 0.449004 0.800513
Al 0.525536 0.561841 0.916819
Al 0.642756 0.674679 -0.966876
Al 0.759976 0.787517 -0.85057
Al 0.877197 0.900355 -0.734265
Al 0.994417 -0.986807 -0.617959
Al -0.888362 -0.873969 -0.501653
Al -0.771142 -0.761131 -0.385348
Al 0.2466 0.539651 0.875555
Al 0.363821 0.652489 0.991861
Al 0.481041 0.765327 -0.891834
Al 0.598261 0.878165 -0.775528
Al 0.715482 0.991003 -0.659223
Al 0.832702 -0.896159 -0.542917
Al 0.949923 -0.783321 -0.426612
Al -0.932857 -0.670483 -0.310306
Al -0.815637 -0.557645 -0.194001
Al 0.0848854 0.630299 0.950597
Al 0.202106 0.743137 -0.933098
Al 0.319326 0.855975 -0.816792
Al 0.436547 0.968813 -0.700487
Al 0.553767 -0.918349 -0.584181
Al 0.670987 -0.805511 -0.467876
Al 0.788208 -0.692673 -0.35157
Al 0.905428 -0.579835 -0.235264
Al 0.0403909 0.833785 -0.858056
Al 0.157611 0.946623 -0.74175
Al 0.274832 -0.940539 -0.625445
Al 0.392052 -0.827701 -0.509139
Al 0.509272 -0.714863 -0.392834
Al 0.626493 -0.602026 -0.276528
Al 0.113117 -0.849891 -0.550403
Al 0.230337 -0.737054 -0.434098
Al 0.347558 -0.624216 -0.317792
Al 0.464778 -0.511378 -0.201486
Al 0.0686222 -0.646406 -0.359056
Al 0.185843 -0.533568 -0.24275
Al 0.976562 0.631408 0.738674
Al -0.906217 0.744245 0.85498
Al -0.788997 0.857083 0.971285
Al 0.697627 0.609217 0.69741
Al 0.814847 0.722055 0.813716
Al 0.932068 0.834893 0.930021
Al -0.950712 0.947731 -0.953673
Al -0.833492 -0.939431 -0.837368
Al -0.716271 -0.826593 -0.721062
Al 0.418692 0.587027 0.656147
Al 0.535912 0.699865 0.772452
Al 0.653132 0.812703 0.888758
Al 0.770353 0.925541 -0.994937
Al 0.887573 -0.961621 -0.878631
Al -0.995206 -0.848783 -0.762326
Al -0.877986 -0.735945 -0.64602
Al -0.760766 -0.623107 -0.529715
Al 0.139756 0.564837 0.614883
Al 0.256977 0.677675 0.731188
Al 0.374197 0.790513 0.847494
Al 0.491417 0.903351 0.963799
Al 0.608638 -0.983811 -0.919895
Al 0.725858 -0.870973 -0.80359
Al 0.843079 -0.758135 -0.687284
Al 0.960299 -0.645297 -0.570978
Al -0.922481 -0.532459 -0.454673
Al -0.80526 -0.419621 -0.338367
Al 0.0952618 0.768323 0.80623
Al 0.212482 0.881161 0.922536
Al 0.329703 0.993999 -0.961159
Al 0.446923 -0.893163 -0.844853
Al 0.564143 -0.780325 -0.728548
Al 0.681364 -0.667487 -0.612242
Al 0.798584 -0.554649 -0.495937
Al 0.915804 -0.441812 -0.379631
Al 0.0507673 0.971809 0.997577
Al 0.167988 -0.915353 -0.886117
Al 0.285208 -0.802515 -0.769812
Al 0.402428 -0.689678 -0.653506
Al 0.519649 -0.57684 -0.5372
Al 0.636869 -0.464002 -0.420895
Al 0.00627277 -0.824705 -0.811075
Al 0.123493 -0.711868 -0.69477
Al 0.240714 -0.59903 -0.578464
Al 0.357934 -0.486192 -0.462159
Al 0.475154 -0.373354 -0.345853
Al -0.0382217 -0.62122 -0.619728
Al 0.0789986 -0.508382 -0.503422
Al 0.196219 -0.395544 -0.387117
Al -0.734126 0.791622 0.635571
Al 0.986939 0.769431 0.594307
Al -0.895841 0.882269 0.710613
Al -0.778621 0.995107 0.826918
Al 0.708003 0.747241 0.553044
Al 0.825224 0.860079 0.669349
Al 0.942444 0.972917 0.785655
Al -0.940336 -0.914245 0.90196
Al -0.823115 -0.801407 -0.981734
Al -0.705895 -0.688569 -0.865429
Al 0.429068 0.725051 0.51178
Al 0.546288 0.837889 0.628085
Al 0.663509 0.950727 0.744391
Al 0.780729 -0.936435 0.860696
Al 0.89795 -0.823597 0.977002
Al -0.98483 -0.710759 -0.906693
Al -0.86761 -0.597921 -0.790387
Al -0.750389 -0.485083 -0.674081
Al 0.150133 0.702861 0.470516
Al 0.267353 0.815699 0.586822
Al 0.384573 0.928537 0.703127
Al 0.501794 -0.958625 0.819433
Al 0.619014 -0.845787 0.935738
Al 0.736235 -0.732949 -0.947956
Al 0.853455 -0.620111 -0.831651
Al 0.970675 -0.507274 -0.715345
Al -0.912104 -0.394436 -0.59904
Al -0.0115822 0.793509 0.545558
Al 0.105638 0.906347 0.661863
Al 0.222859 -0.980815 0.778169
Al 0.340079 -0.867977 0.894474
Al 0.457299 -0.755139 -0.98922
Al 0.57452 -0.642302 -0.872914
Al 0.69174 -0.529464 -0.756609
Al 0.808961 -0.416626 -0.640303
Al 0.926181 -0.303788 -0.523998
Al -0.0560767 0.996994 0.736905
Al 0.0611437 -0.890168 0.853211
Al 0.178364 -0.77733 0.969516
Al 0.295584 -0.664492 -0.914178
Al 0.412805 -0.551654 -0.797873
Al 0.530025 -0.438816 -0.681567
Al 0.647246 -0.325978 -0.565262
Al -0.100571 -0.79952 0.928252
Al 0.0166492 -0.686682 -0.955442
Al 0.13387 -0.573844 -0.839136
Al 0.25109 -0.461006 -0.722831
Al 0.36831 -0.348168 -0.606525
Al 0.485531 -0.23533 -0.49022
Al -0.145066 -0.596034 -0.8804
Al -0.0278453 -0.483196 -0.764095
Al 0.0893751 -0.370358 -0.647789
Al -0.29502 -0.545537 0.932835
Al -0.106499 -0.610787 0.94705
Al -0.247115 -0.38374 -0.959802
Al -0.0585941 -0.448991 -0.945587
Al 0.129927 -0.514241 -0.931371
Al -0.0106893 -0.287194 -0.838223
Al 0.177832 -0.352444 -0.824008
Al 0.366353 -0.417695 -0.809792
Al 0.554875 -0.482945 -0.795576
Al 0.225737 -0.190647 -0.716644
Al 0.414258 -0.255898 -0.702429
Al 0.60278 -0.321148 -0.688213
Al 0.791301 -0.386399 -0.673998
Al 0.462163 -0.0941008 -0.595065
Al 0.650684 -0.159351 -0.58085
Al 0.839206 -0.224602 -0.566634
Al -0.972273 -0.289852 -0.552418
Al -0.155781 -0.836585 0.564184
Al 0.0327404 -0.901835 0.578399
Al 0.221262 -0.967086 0.592615
Al -0.296397 -0.609537 0.657331
Al -0.107876 -0.674788 0.671547
Al 0.0806452 -0.740038 0.685762
Al 0.269166 -0.805289 0.699978
Al 0.457688 -0.870539 0.714194
Al -0.248493 -0.447741 0.764695
Al -0.0599713 -0.512991 0.77891
Al 0.12855 -0.578241 0.793126
Al 0.317071 -0.643492 0.807341
Al 0.505593 -0.708742 0.821557
Al 0.694114 -0.773993 0.835773
Al -0.200588 -0.285944 0.872058
Al -0.0120664 -0.351194 0.886274
Al 0.176455 -0.416445 0.900489
Al 0.364976 -0.481695 0.914705
Al 0.553498 -0.546945 0.92892
Al 0.742019 -0.612196 0.943136
Al 0.93054 -0.677446 0.957352
Al -0.880938 -0.742697 0.971567
Al 0.0358384 -0.189397 0.993637
Al 0.22436 -0.254648 -0.992147
Al 0.412881 -0.319898 -0.977932
Al 0.601402 -0.385149 -0.963716
Al 0.789924 -0.450399 -0.949501
Al 0.978445 -0.51565 -0.935285
Al -0.833034 -0.5809 -0.92107
Al -0.644512 -0.64615 -0.906854
Al 0.0837433 -0.0276003 -0.899
Al 0.272265 -0.0928508 -0.884784
Al 0.460786 -0.158101 -0.870568
Al 0.649307 -0.223352 -0.856353
Al 0.837829 -0.288602 -0.842137
Al -0.97365 -0.353853 -0.827922
Al -0.785129 -0.419103 -0.813706
Al -0.596607 -0.484354 -0.799491
Al 0.32017 0.0689461 -0.777421
Al 0.508691 0.00369558 -0.763205
Al 0.697212 -0.0615548 -0.74899
Al 0.885734 -0.126805 -0.734774
Al -0.925745 -0.192056 -0.720558
Al 0.219885 0.968914 0.317111
Al 0.408406 0.903663 0.331327
Al -0.297775 -0.673538 0.381828
Al -0.109253 -0.738788 0.396044
Al 0.0792681 -0.804039 0.410259
Al 0.267789 -0.869289 0.424475
Al 0.456311 -0.93454 0.43869
Al 0.644832 -0.99979 0.452906
Al 0.833353 0.934959 0.467121
Al -0.978125 0.869709 0.481337
Al -0.24987 -0.511741 0.489191
Al -0.0613484 -0.576991 0.503407
Al 0.127173 -0.642242 0.517623
Al 0.315694 -0.707492 0.531838
Al 0.504216 -0.772743 0.546054
Al 0.692737 -0.837993 0.560269
Al 0.881258 -0.903244 0.574485
Al -0.93022 -0.968494 0.5887
Al -0.741699 0.966255 0.602916
Al -0.201965 -0.349944 0.596555
Al -0.0134435 -0.415195 0.61077
Al 0.175078 -0.480445 0.624986
Al 0.363599 -0.545695 0.639202
Al 0.55212 -0.610946 0.653417
Al 0.740642 -0.676196 0.667633
Al 0.929163 -0.741447 0.681848
Al -0.882316 -0.806697 0.696064
Al -0.693794 -0.871948 0.710279
Al -0.15406 -0.188147 0.703918
Al 0.0344613 -0.253398 0.718134
Al 0.222983 -0.318648 0.732349
Al 0.411504 -0.383899 0.746565
Al 0.600025 -0.449149 0.76078
Al 0.788547 -0.5144 0.774996
Al 0.977068 -0.57965 0.789212
Al -0.834411 -0.6449 0.803427
Al -0.645889 -0.710151 0.817643
Al -0.106155 -0.0263503 0.811282
Al 0.0823662 -0.0916008 0.825497
Al 0.270888 -0.156851 0.839713
Al 0.459409 -0.222102 0.853928
Al 0.64793 -0.287352 0.868144
Al 0.836452 -0.352603 0.882359
Al -0.975027 -0.417853 0.896575
Al -0.786506 -0.483104 0.910791
Al -0.597984 -0.548354 0.925006
Al 0.130271 0.0701962 0.93286
Al 0.318792 0.0049457 0.947076
Al 0.507314 -0.0603047 0.961292
Al 0.695835 -0.125555 0.975507
Al 0.884356 -0.190806 0.989723
Al -0.927122 -0.256056 -0.996062
Al -0.738601 -0.321307 -0.981846
Al -0.55008 -0.386557 -0.967631
Al -0.361558 -0.451808 -0.953415
Al 0.366697 0.166743 -0.945561
Al 0.555219 0.101492 -0.931345
Al 0.74374 0.0362417 -0.91713
Al 0.932261 -0.0290088 -0.902914
Al -0.879217 -0.0942593 -0.888698
Al -0.690696 -0.15951 -0.874483
Al 0.980166 0.132788 -0.79555
Al -0.251247 -0.575741 0.213688
Al -0.0627256 -0.640992 0.227904
Al 0.125796 -0.706242 0.242119
Al 0.314317 -0.771493 0.256335
Al 0.502838 -0.836743 0.27055
Al 0.69136 -0.901994 0.284766
Al 0.879881 -0.967244 0.298982
Al -0.931598 0.967505 0.313197
Al -0.203342 -0.413944 0.321051
Al -0.0148207 -0.479195 0.335267
Al 0.173701 -0.544445 0.349483
Al 0.362222 -0.609696 0.363698
Al 0.550743 -0.674946 0.377914
Al 0.739265 -0.740197 0.392129
Al 0.927786 -0.805447 0.406345
Al -0.883693 -0.870698 0.420561
Al -0.695171 -0.935948 0.434776
Al -0.155437 -0.252148 0.428415
Al 0.0330842 -0.317398 0.44263
Al 0.221606 -0.382649 0.456846
Al 0.410127 -0.447899 0.471062
Al 0.598648 -0.513149 0.485277
Al 0.78717 -0.5784 0.499493
Al 0.975691 -0.64365 0.513708
Al -0.835788 -0.708901 0.527924
Al -0.647267 -0.774151 0.542139
Al -0.458745 -0.839402 0.556355
Al -0.296054 -0.0251003 0.521563
Al -0.107532 -0.0903507 0.535778
Al 0.080989 -0.155601 0.549994
Al 0.26951 -0.220852 0.564209
Al 0.458032 -0.286102 0.578425
Al 0.646553 -0.351353 0.592641
Al 0.835074 -0.416603 0.606856
Al -0.976404 -0.481854 0.621072
Al -0.787883 -0.547104 0.635287
Al -0.599362 -0.612354 0.649503
Al -0.41084 -0.677605 0.663718
Al -0.248149 0.136697 0.628926
Al -0.0596274 0.0714461 0.643142
Al 0.128894 0.00619568 0.657357
Al 0.317415 -0.0590548 0.671573
Al 0.505937 -0.124305 0.685788
Al 0.694458 -0.189556 0.700004
Al 0.882979 -0.254806 0.714219
Al -0.928499 -0.320057 0.728435
Al -0.739978 -0.385307 0.742651
Al -0.551457 -0.450558 0.756866
Al -0.362935 -0.515808 0.771082
Al -0.0117225 0.233243 0.750505
Al 0.176799 0.167993 0.764721
Al 0.36532 0.102742 0.778936
Al 0.553841 0.0374917 0.793152
Al 0.742363 -0.0277588 0.807367
Al 0.930884 -0.0930093 0.821583
Al -0.880595 -0.15826 0.835798
Al -0.692073 -0.22351 0.850014
Al -0.503552 -0.288761 0.86423
Al 0.224704 0.329789 0.872084
Al 0.413225 0.264539 0.886299
Al 0.601746 0.199288 0.900515
Al 0.790268 0.134038 0.914731
Al 0.978789 0.0687876 0.928946
Al -0.83269 0.00353712 0.943162
Al -0.644168 -0.0617133 0.957377
Al -0.973306 0.230585 -0.96369
Al -0.204719 -0.477945 0.0455482
Al -0.0161978 -0.543195 0.0597638
Al 0.172324 -0.608446 0.0739794
Al 0.360845 -0.673696 0.088195
Al 0.549366 -0.738947 0.102411
Al 0.737888 -0.804197 0.116626
Al 0.926409 -0.869448 0.130842
Al -0.156814 -0.316148 0.152912
Al 0.031707 -0.381398 0.167127
Al 0.220228 -0.446649 0.181343
Al 0.40875 -0.511899 0.195558
Al 0.597271 -0.57715 0.209774
Al 0.785792 -0.6424 0.223989
Al 0.974314 -0.707651 0.238205
Al -0.837165 -0.772901 0.252421
Al -0.648644 -0.838152 0.266636
Al -0.108909 -0.154351 0.260275
Al 0.0796119 -0.219602 0.274491
Al 0.268133 -0.284852 0.288706
Al 0.456655 -0.350103 0.302922
Al 0.645176 -0.415353 0.317137
Al 0.833697 -0.480603 0.331353
Al -0.977781 -0.545854 0.345568
Al -0.78926 -0.611104 0.359784
Al -0.600739 -0.676355 0.374
Al -0.412217 -0.741605 0.388215
Al -0.0610046 0.00744574 0.367638
Al 0.127517 -0.0578047 0.381854
Al 0.316038 -0.123055 0.39607
Al 0.504559 -0.188306 0.410285
Al 0.693081 -0.253556 0.424501
Al 0.881602 -0.318807 0.438716
Al -0.929877 -0.384057 0.452932
Al -0.741355 -0.449308 0.467147
Al -0.552834 -0.514558 0.481363
Al -0.364313 -0.579808 0.495579
Al -0.0130997 0.169243 0.475002
Al 0.175422 0.103992 0.489217
Al 0.363943 0.0387417 0.503433
Al 0.552464 -0.0265088 0.517648
Al 0.740986 -0.0917592 0.531864
Al 0.929507 -0.15701 0.54608
Al -0.881972 -0.22226 0.560295
Al -0.69345 -0.287511 0.574511
Al -0.504929 -0.352761 0.588726
Al 0.0348052 0.33104 0.582365
Al 0.223327 0.265789 0.596581
Al 0.411848 0.200539 0.610796
Al 0.600369 0.135288 0.625012
Al 0.78889 0.0700377 0.639227
Al 0.977412 0.00478715 0.653443
Al -0.834067 -0.0604632 0.667659
Al -0.645546 -0.125714 0.681874
Al -0.457024 -0.190964 0.69609
Al 0.08271 0.492836 0.689728
Al 0.271231 0.427586 0.703944
Al 0.459753 0.362335 0.71816
Al 0.648274 0.297085 0.732375
Al 0.836795 0.231835 0.746591
Al -0.974683 0.166584 0.760806
Al -0.786162 0.101334 0.775022
Al -0.597641 0.0360831 0.789237
Al 0.8847 0.393631 0.853954
Al -0.926778 0.328381 0.86817
Al -0.738257 0.263131 0.882385
Al 0.0303299 -0.445399 -0.108376
Al 0.218851 -0.510649 -0.0941605
Al 0.407373 -0.5759 -0.0799449
Al 0.0782348 -0.283602 -0.00101274
Al 0.266756 -0.348853 0.0132028
Al 0.455277 -0.414103 0.0274184
Al 0.643799 -0.479353 0.041634
Al 0.83232 -0.544604 0.0558496
Al -0.979159 -0.609854 0.0700652
Al -0.790637 -0.675105 0.0842807
Al 0.12614 -0.121805 0.106351
Al 0.314661 -0.187056 0.120566
Al 0.503182 -0.252306 0.134782
Al 0.691704 -0.317557 0.148997
Al 0.880225 -0.382807 0.163213
Al -0.931254 -0.448057 0.177429
Al -0.742732 -0.513308 0.191644
Al -0.554211 -0.578558 0.20586
Al 0.174045 0.0399917 0.213714
Al 0.362566 -0.0252588 0.22793
Al 0.551087 -0.0905092 0.242145
Al 0.739608 -0.15576 0.256361
Al 0.92813 -0.22101 0.270576
Al -0.883349 -0.286261 0.284792
Al -0.694827 -0.351511 0.299008
Al -0.506306 -0.416762 0.313223
Al 0.033428 0.267039 0.306862
Al 0.221949 0.201789 0.321077
Al 0.410471 0.136538 0.335293
Al 0.598992 0.0712877 0.349509
Al 0.787513 0.00603721 0.363724
Al 0.976035 -0.0592133 0.37794
Al -0.835444 -0.124464 0.392155
Al -0.646923 -0.189714 0.406371
Al -0.458401 -0.254965 0.420586
Al 0.0813329 0.428836 0.414225
Al 0.269854 0.363586 0.428441
Al 0.458376 0.298335 0.442656
Al 0.646897 0.233085 0.456872
Al 0.835418 0.167834 0.471088
Al -0.97606 0.102584 0.485303
Al -0.787539 0.0373332 0.499519
Al -0.599018 -0.0279172 0.513734
Al -0.410496 -0.0931677 0.52795
Al 0.129238 0.590633 0.521589
Al 0.317759 0.525382 0.535804
Al 0.50628 0.460132 0.55002
Al 0.694802 0.394881 0.564235
Al 0.883323 0.329631 0.578451
Al -0.928156 0.26438 0.592666
Al -0.739634 0.19913 0.606882
Al -0.551113 0.13388 0.621098
Al -0.362592 0.068629 0.635313
Al 0.742707 0.556678 0.671599
Al 0.931228 0.491428 0.685814
Al -0.880251 0.426177 0.70003
Al -0.691729 0.360927 0.714245
Al 0.313284 -0.251056 -0.154937
Al 0.501805 -0.316307 -0.140721
Al 0.690326 -0.381557 -0.126506
Al 0.878848 -0.446807 -0.11229
Al -0.932631 -0.512058 -0.0980747
Al -0.74411 -0.577308 -0.0838592
Al 0.172667 -0.0240087 -0.0617892
Al 0.361189 -0.0892592 -0.0475737
Al 0.54971 -0.15451 -0.0333581
Al 0.738231 -0.21976 -0.0191425
Al 0.926753 -0.285011 -0.00492693
Al -0.884726 -0.350261 0.00928865
Al -0.696205 -0.415511 0.0235042
Al -0.507683 -0.480762 0.0377198
Al 0.220572 0.137788 0.0455741
Al 0.409094 0.0725377 0.0597897
Al 0.597615 0.00728723 0.0740053
Al 0.786136 -0.0579632 0.0882209
Al 0.974658 -0.123214 0.102436
Al -0.836821 -0.188464 0.116652
Al -0.6483 -0.253715 0.130868
Al -0.459778 -0.318965 0.145083
Al 0.268477 0.299585 0.152938
Al 0.456998 0.234335 0.167153
Al 0.64552 0.169084 0.181369
Al 0.834041 0.103834 0.195584
Al -0.977437 0.0385831 0.2098
Al -0.788916 -0.0266673 0.224015
Al -0.600395 -0.0919177 0.238231
Al -0.411874 -0.157168 0.252447
Al 0.316382 0.461382 0.260301
Al 0.504903 0.396132 0.274516
Al 0.693425 0.330881 0.288732
Al 0.881946 0.265631 0.302948
Al -0.929533 0.20038 0.317163
Al -0.741011 0.13513 0.331379
Al -0.55249 0.0698792 0.345594
Al 0.364287 0.623179 0.367664
Al 0.552808 0.557928 0.38188
Al 0.74133 0.492678 0.396095
Al 0.929851 0.427427 0.410311
Al -0.881628 0.362177 0.424527
Al -0.693107 0.296927 0.438742
Al -0.504585 0.231676 0.452958
Al 0.789234 0.654475 0.503459
Al 0.977756 0.589224 0.517674
Al -0.833723 0.523974 0.53189
Al -0.645202 0.458723 0.546106
Al 0.359812 -0.15326 -0.323077
Al 0.548333 -0.21851 -0.308861
Al 0.736854 -0.283761 -0.294646
Al 0.925376 -0.349011 -0.28043
Al -0.886103 -0.414261 -0.266215
Al 0.407716 0.00853728 -0.215714
Al 0.596238 -0.0567132 -0.201498
Al 0.784759 -0.121964 -0.187282
Al 0.97328 -0.187214 -0.173067
Al -0.838198 -0.252465 -0.158851
Al 0.455621 0.170334 -0.10835
Al 0.644143 0.105084 -0.0941346
Al 0.832664 0.0398333 -0.079919
Al -0.978815 -0.0254172 -0.0657035
Al -0.790293 -0.0906677 -0.0514879
Al 0.692047 0.266881 0.0132288
Al 0.880569 0.20163 0.0274443
Al -0.93091 0.13638 0.0416599
Al 0.739952 0.428677 0.120592
Al 0.928474 0.363427 0.134808
Al -0.883005 0.298177 0.149023
Al 0.787857 0.590474 0.227955
Al 0.976379 0.525224 0.242171
Al -0.975717 0.687021 0.349534
